* NGSPICE file created from user_proj_example.ext - technology: sky130A

* Black-box entry subcircuit for sky130_fd_sc_hd__decap_12 abstract view
.subckt sky130_fd_sc_hd__decap_12 VGND VNB VPB VPWR
.ends

* Black-box entry subcircuit for sky130_fd_sc_hd__fill_2 abstract view
.subckt sky130_fd_sc_hd__fill_2 VGND VNB VPB VPWR
.ends

* Black-box entry subcircuit for sky130_fd_sc_hd__fill_1 abstract view
.subckt sky130_fd_sc_hd__fill_1 VGND VNB VPB VPWR
.ends

* Black-box entry subcircuit for sky130_fd_sc_hd__tapvpwrvgnd_1 abstract view
.subckt sky130_fd_sc_hd__tapvpwrvgnd_1 VGND VPWR
.ends

* Black-box entry subcircuit for sky130_fd_sc_hd__decap_8 abstract view
.subckt sky130_fd_sc_hd__decap_8 VGND VNB VPB VPWR
.ends

* Black-box entry subcircuit for sky130_fd_sc_hd__decap_6 abstract view
.subckt sky130_fd_sc_hd__decap_6 VGND VNB VPB VPWR
.ends

* Black-box entry subcircuit for sky130_fd_sc_hd__decap_4 abstract view
.subckt sky130_fd_sc_hd__decap_4 VGND VNB VPB VPWR
.ends

* Black-box entry subcircuit for sky130_fd_sc_hd__conb_1 abstract view
.subckt sky130_fd_sc_hd__conb_1 VGND VNB VPB VPWR HI LO
.ends

* Black-box entry subcircuit for sky130_fd_sc_hd__decap_3 abstract view
.subckt sky130_fd_sc_hd__decap_3 VGND VNB VPB VPWR
.ends

* Black-box entry subcircuit for NAND2X1 abstract view
.subckt NAND2X1 vdd gnd Y B A
.ends

* Black-box entry subcircuit for AOI21X1 abstract view
.subckt AOI21X1 vdd gnd Y A B C
.ends

* Black-box entry subcircuit for LATCH abstract view
.subckt LATCH vdd gnd Q D CLK
.ends

* Black-box entry subcircuit for INVX1 abstract view
.subckt INVX1 vdd gnd Y A
.ends

* Black-box entry subcircuit for INVX2 abstract view
.subckt INVX2 vdd gnd Y A
.ends

* Black-box entry subcircuit for NOR2X1 abstract view
.subckt NOR2X1 vdd gnd Y A B
.ends

* Black-box entry subcircuit for INVX4 abstract view
.subckt INVX4 vdd gnd Y A
.ends

* Black-box entry subcircuit for OR2X1 abstract view
.subckt OR2X1 vdd gnd Y B A
.ends

* Black-box entry subcircuit for OR2X2 abstract view
.subckt OR2X2 vdd gnd Y B A
.ends

* Black-box entry subcircuit for INVX8 abstract view
.subckt INVX8 vdd gnd Y A
.ends

* Black-box entry subcircuit for OAI22X1 abstract view
.subckt OAI22X1 vdd gnd Y B D C A
.ends

* Black-box entry subcircuit for BUFX2 abstract view
.subckt BUFX2 vdd gnd Y A
.ends

* Black-box entry subcircuit for NAND3X1 abstract view
.subckt NAND3X1 vdd gnd Y A B C
.ends

* Black-box entry subcircuit for INV abstract view
.subckt INV vdd gnd Y A
.ends

* Black-box entry subcircuit for TBUFX1 abstract view
.subckt TBUFX1 vdd gnd Y A EN
.ends

* Black-box entry subcircuit for BUFX4 abstract view
.subckt BUFX4 vdd gnd Y A
.ends

* Black-box entry subcircuit for TBUFX2 abstract view
.subckt TBUFX2 vdd gnd Y A EN
.ends

* Black-box entry subcircuit for AOI22X1 abstract view
.subckt AOI22X1 vdd gnd Y C B D A
.ends

* Black-box entry subcircuit for NOR3X1 abstract view
.subckt NOR3X1 vdd gnd Y A C B
.ends

* Black-box entry subcircuit for CLKBUF1 abstract view
.subckt CLKBUF1 vdd gnd Y A
.ends

* Black-box entry subcircuit for MUX2X1 abstract view
.subckt MUX2X1 vdd gnd Y A S B
.ends

* Black-box entry subcircuit for AND2X1 abstract view
.subckt AND2X1 vdd gnd Y A B
.ends

* Black-box entry subcircuit for AND2X2 abstract view
.subckt AND2X2 vdd gnd Y A B
.ends

* Black-box entry subcircuit for OAI21X1 abstract view
.subckt OAI21X1 vdd gnd Y B C A
.ends

* Black-box entry subcircuit for HAX1 abstract view
.subckt HAX1 vdd gnd YS YC A B
.ends

.subckt user_proj_example io_in[0] io_in[10] io_in[11] io_in[12] io_in[13] io_in[14]
+ io_in[15] io_in[16] io_in[17] io_in[18] io_in[19] io_in[1] io_in[20] io_in[21] io_in[22]
+ io_in[23] io_in[24] io_in[25] io_in[26] io_in[27] io_in[28] io_in[29] io_in[2] io_in[30]
+ io_in[31] io_in[32] io_in[33] io_in[34] io_in[35] io_in[36] io_in[37] io_in[3] io_in[4]
+ io_in[5] io_in[6] io_in[7] io_in[8] io_in[9] io_oeb[0] io_oeb[10] io_oeb[11] io_oeb[12]
+ io_oeb[13] io_oeb[14] io_oeb[15] io_oeb[16] io_oeb[17] io_oeb[18] io_oeb[19] io_oeb[1]
+ io_oeb[20] io_oeb[21] io_oeb[22] io_oeb[23] io_oeb[24] io_oeb[25] io_oeb[26] io_oeb[27]
+ io_oeb[28] io_oeb[29] io_oeb[2] io_oeb[30] io_oeb[31] io_oeb[32] io_oeb[33] io_oeb[34]
+ io_oeb[35] io_oeb[36] io_oeb[37] io_oeb[3] io_oeb[4] io_oeb[5] io_oeb[6] io_oeb[7]
+ io_oeb[8] io_oeb[9] io_out[0] io_out[10] io_out[11] io_out[12] io_out[13] io_out[14]
+ io_out[15] io_out[16] io_out[17] io_out[18] io_out[19] io_out[1] io_out[20] io_out[21]
+ io_out[22] io_out[23] io_out[24] io_out[25] io_out[26] io_out[27] io_out[28] io_out[29]
+ io_out[2] io_out[30] io_out[31] io_out[32] io_out[33] io_out[34] io_out[35] io_out[36]
+ io_out[37] io_out[3] io_out[4] io_out[5] io_out[6] io_out[7] io_out[8] io_out[9]
+ la_data_in[0] la_data_in[100] la_data_in[101] la_data_in[102] la_data_in[103] la_data_in[104]
+ la_data_in[105] la_data_in[106] la_data_in[107] la_data_in[108] la_data_in[109]
+ la_data_in[10] la_data_in[110] la_data_in[111] la_data_in[112] la_data_in[113] la_data_in[114]
+ la_data_in[115] la_data_in[116] la_data_in[117] la_data_in[118] la_data_in[119]
+ la_data_in[11] la_data_in[120] la_data_in[121] la_data_in[122] la_data_in[123] la_data_in[124]
+ la_data_in[125] la_data_in[126] la_data_in[127] la_data_in[12] la_data_in[13] la_data_in[14]
+ la_data_in[15] la_data_in[16] la_data_in[17] la_data_in[18] la_data_in[19] la_data_in[1]
+ la_data_in[20] la_data_in[21] la_data_in[22] la_data_in[23] la_data_in[24] la_data_in[25]
+ la_data_in[26] la_data_in[27] la_data_in[28] la_data_in[29] la_data_in[2] la_data_in[30]
+ la_data_in[31] la_data_in[32] la_data_in[33] la_data_in[34] la_data_in[35] la_data_in[36]
+ la_data_in[37] la_data_in[38] la_data_in[39] la_data_in[3] la_data_in[40] la_data_in[41]
+ la_data_in[42] la_data_in[43] la_data_in[44] la_data_in[45] la_data_in[46] la_data_in[47]
+ la_data_in[48] la_data_in[49] la_data_in[4] la_data_in[50] la_data_in[51] la_data_in[52]
+ la_data_in[53] la_data_in[54] la_data_in[55] la_data_in[56] la_data_in[57] la_data_in[58]
+ la_data_in[59] la_data_in[5] la_data_in[60] la_data_in[61] la_data_in[62] la_data_in[63]
+ la_data_in[64] la_data_in[65] la_data_in[66] la_data_in[67] la_data_in[68] la_data_in[69]
+ la_data_in[6] la_data_in[70] la_data_in[71] la_data_in[72] la_data_in[73] la_data_in[74]
+ la_data_in[75] la_data_in[76] la_data_in[77] la_data_in[78] la_data_in[79] la_data_in[7]
+ la_data_in[80] la_data_in[81] la_data_in[82] la_data_in[83] la_data_in[84] la_data_in[85]
+ la_data_in[86] la_data_in[87] la_data_in[88] la_data_in[89] la_data_in[8] la_data_in[90]
+ la_data_in[91] la_data_in[92] la_data_in[93] la_data_in[94] la_data_in[95] la_data_in[96]
+ la_data_in[97] la_data_in[98] la_data_in[99] la_data_in[9] la_data_out[0] la_data_out[100]
+ la_data_out[101] la_data_out[102] la_data_out[103] la_data_out[104] la_data_out[105]
+ la_data_out[106] la_data_out[107] la_data_out[108] la_data_out[109] la_data_out[10]
+ la_data_out[110] la_data_out[111] la_data_out[112] la_data_out[113] la_data_out[114]
+ la_data_out[115] la_data_out[116] la_data_out[117] la_data_out[118] la_data_out[119]
+ la_data_out[11] la_data_out[120] la_data_out[121] la_data_out[122] la_data_out[123]
+ la_data_out[124] la_data_out[125] la_data_out[126] la_data_out[127] la_data_out[12]
+ la_data_out[13] la_data_out[14] la_data_out[15] la_data_out[16] la_data_out[17]
+ la_data_out[18] la_data_out[19] la_data_out[1] la_data_out[20] la_data_out[21] la_data_out[22]
+ la_data_out[23] la_data_out[24] la_data_out[25] la_data_out[26] la_data_out[27]
+ la_data_out[28] la_data_out[29] la_data_out[2] la_data_out[30] la_data_out[31] la_data_out[32]
+ la_data_out[33] la_data_out[34] la_data_out[35] la_data_out[36] la_data_out[37]
+ la_data_out[38] la_data_out[39] la_data_out[3] la_data_out[40] la_data_out[41] la_data_out[42]
+ la_data_out[43] la_data_out[44] la_data_out[45] la_data_out[46] la_data_out[47]
+ la_data_out[48] la_data_out[49] la_data_out[4] la_data_out[50] la_data_out[51] la_data_out[52]
+ la_data_out[53] la_data_out[54] la_data_out[55] la_data_out[56] la_data_out[57]
+ la_data_out[58] la_data_out[59] la_data_out[5] la_data_out[60] la_data_out[61] la_data_out[62]
+ la_data_out[63] la_data_out[64] la_data_out[65] la_data_out[66] la_data_out[67]
+ la_data_out[68] la_data_out[69] la_data_out[6] la_data_out[70] la_data_out[71] la_data_out[72]
+ la_data_out[73] la_data_out[74] la_data_out[75] la_data_out[76] la_data_out[77]
+ la_data_out[78] la_data_out[79] la_data_out[7] la_data_out[80] la_data_out[81] la_data_out[82]
+ la_data_out[83] la_data_out[84] la_data_out[85] la_data_out[86] la_data_out[87]
+ la_data_out[88] la_data_out[89] la_data_out[8] la_data_out[90] la_data_out[91] la_data_out[92]
+ la_data_out[93] la_data_out[94] la_data_out[95] la_data_out[96] la_data_out[97]
+ la_data_out[98] la_data_out[99] la_data_out[9] la_oen[0] la_oen[100] la_oen[101]
+ la_oen[102] la_oen[103] la_oen[104] la_oen[105] la_oen[106] la_oen[107] la_oen[108]
+ la_oen[109] la_oen[10] la_oen[110] la_oen[111] la_oen[112] la_oen[113] la_oen[114]
+ la_oen[115] la_oen[116] la_oen[117] la_oen[118] la_oen[119] la_oen[11] la_oen[120]
+ la_oen[121] la_oen[122] la_oen[123] la_oen[124] la_oen[125] la_oen[126] la_oen[127]
+ la_oen[12] la_oen[13] la_oen[14] la_oen[15] la_oen[16] la_oen[17] la_oen[18] la_oen[19]
+ la_oen[1] la_oen[20] la_oen[21] la_oen[22] la_oen[23] la_oen[24] la_oen[25] la_oen[26]
+ la_oen[27] la_oen[28] la_oen[29] la_oen[2] la_oen[30] la_oen[31] la_oen[32] la_oen[33]
+ la_oen[34] la_oen[35] la_oen[36] la_oen[37] la_oen[38] la_oen[39] la_oen[3] la_oen[40]
+ la_oen[41] la_oen[42] la_oen[43] la_oen[44] la_oen[45] la_oen[46] la_oen[47] la_oen[48]
+ la_oen[49] la_oen[4] la_oen[50] la_oen[51] la_oen[52] la_oen[53] la_oen[54] la_oen[55]
+ la_oen[56] la_oen[57] la_oen[58] la_oen[59] la_oen[5] la_oen[60] la_oen[61] la_oen[62]
+ la_oen[63] la_oen[64] la_oen[65] la_oen[66] la_oen[67] la_oen[68] la_oen[69] la_oen[6]
+ la_oen[70] la_oen[71] la_oen[72] la_oen[73] la_oen[74] la_oen[75] la_oen[76] la_oen[77]
+ la_oen[78] la_oen[79] la_oen[7] la_oen[80] la_oen[81] la_oen[82] la_oen[83] la_oen[84]
+ la_oen[85] la_oen[86] la_oen[87] la_oen[88] la_oen[89] la_oen[8] la_oen[90] la_oen[91]
+ la_oen[92] la_oen[93] la_oen[94] la_oen[95] la_oen[96] la_oen[97] la_oen[98] la_oen[99]
+ la_oen[9] wb_clk_i wb_rst_i wbs_ack_o wbs_adr_i[0] wbs_adr_i[10] wbs_adr_i[11] wbs_adr_i[12]
+ wbs_adr_i[13] wbs_adr_i[14] wbs_adr_i[15] wbs_adr_i[16] wbs_adr_i[17] wbs_adr_i[18]
+ wbs_adr_i[19] wbs_adr_i[1] wbs_adr_i[20] wbs_adr_i[21] wbs_adr_i[22] wbs_adr_i[23]
+ wbs_adr_i[24] wbs_adr_i[25] wbs_adr_i[26] wbs_adr_i[27] wbs_adr_i[28] wbs_adr_i[29]
+ wbs_adr_i[2] wbs_adr_i[30] wbs_adr_i[31] wbs_adr_i[3] wbs_adr_i[4] wbs_adr_i[5]
+ wbs_adr_i[6] wbs_adr_i[7] wbs_adr_i[8] wbs_adr_i[9] wbs_cyc_i wbs_dat_i[0] wbs_dat_i[10]
+ wbs_dat_i[11] wbs_dat_i[12] wbs_dat_i[13] wbs_dat_i[14] wbs_dat_i[15] wbs_dat_i[16]
+ wbs_dat_i[17] wbs_dat_i[18] wbs_dat_i[19] wbs_dat_i[1] wbs_dat_i[20] wbs_dat_i[21]
+ wbs_dat_i[22] wbs_dat_i[23] wbs_dat_i[24] wbs_dat_i[25] wbs_dat_i[26] wbs_dat_i[27]
+ wbs_dat_i[28] wbs_dat_i[29] wbs_dat_i[2] wbs_dat_i[30] wbs_dat_i[31] wbs_dat_i[3]
+ wbs_dat_i[4] wbs_dat_i[5] wbs_dat_i[6] wbs_dat_i[7] wbs_dat_i[8] wbs_dat_i[9] wbs_dat_o[0]
+ wbs_dat_o[10] wbs_dat_o[11] wbs_dat_o[12] wbs_dat_o[13] wbs_dat_o[14] wbs_dat_o[15]
+ wbs_dat_o[16] wbs_dat_o[17] wbs_dat_o[18] wbs_dat_o[19] wbs_dat_o[1] wbs_dat_o[20]
+ wbs_dat_o[21] wbs_dat_o[22] wbs_dat_o[23] wbs_dat_o[24] wbs_dat_o[25] wbs_dat_o[26]
+ wbs_dat_o[27] wbs_dat_o[28] wbs_dat_o[29] wbs_dat_o[2] wbs_dat_o[30] wbs_dat_o[31]
+ wbs_dat_o[3] wbs_dat_o[4] wbs_dat_o[5] wbs_dat_o[6] wbs_dat_o[7] wbs_dat_o[8] wbs_dat_o[9]
+ wbs_sel_i[0] wbs_sel_i[1] wbs_sel_i[2] wbs_sel_i[3] wbs_stb_i wbs_we_i VPWR VGND
XFILLER_79_391 VGND VGND VPWR VPWR sky130_fd_sc_hd__decap_12
XFILLER_94_361 VGND VGND VPWR VPWR sky130_fd_sc_hd__decap_12
XFILLER_27_406 VGND VGND VPWR VPWR sky130_fd_sc_hd__decap_12
XFILLER_67_586 VGND VGND VPWR VPWR sky130_fd_sc_hd__decap_12
XFILLER_27_428 VGND VGND VPWR VPWR sky130_fd_sc_hd__decap_12
XFILLER_82_556 VGND VGND VPWR VPWR sky130_fd_sc_hd__decap_12
XFILLER_23_623 VGND VGND VPWR VPWR sky130_fd_sc_hd__fill_2
XFILLER_22_166 VGND VGND VPWR VPWR sky130_fd_sc_hd__decap_12
XFILLER_77_15 VGND VGND VPWR VPWR sky130_fd_sc_hd__decap_12
XFILLER_77_59 VGND VGND VPWR VPWR sky130_fd_sc_hd__fill_2
XFILLER_77_306 VGND VGND VPWR VPWR sky130_fd_sc_hd__decap_12
XFILLER_58_520 VGND VGND VPWR VPWR sky130_fd_sc_hd__decap_12
XFILLER_73_512 VGND VGND VPWR VPWR sky130_fd_sc_hd__decap_12
XFILLER_45_269 VGND VGND VPWR VPWR sky130_fd_sc_hd__decap_12
XFILLER_26_483 VGND VGND VPWR VPWR sky130_fd_sc_hd__decap_12
XFILLER_60_239 VGND VGND VPWR VPWR sky130_fd_sc_hd__decap_12
XFILLER_41_464 VGND VGND VPWR VPWR sky130_fd_sc_hd__decap_12
XFILLER_9_159 VGND VGND VPWR VPWR sky130_fd_sc_hd__decap_12
XFILLER_5_354 VGND VGND VPWR VPWR sky130_fd_sc_hd__decap_12
XFILLER_3_12 VGND VGND VPWR VPWR sky130_fd_sc_hd__decap_12
XFILLER_95_147 VGND VGND VPWR VPWR sky130_fd_sc_hd__decap_12
XFILLER_76_361 VGND VGND VPWR VPWR sky130_fd_sc_hd__decap_12
XFILLER_49_586 VGND VGND VPWR VPWR sky130_fd_sc_hd__decap_12
XFILLER_91_342 VGND VGND VPWR VPWR sky130_fd_sc_hd__decap_12
XFILLER_36_236 VGND VGND VPWR VPWR sky130_fd_sc_hd__decap_12
XFILLER_8_181 VGND VGND VPWR VPWR sky130_fd_sc_hd__decap_12
XFILLER_99_464 VGND VGND VPWR VPWR sky130_fd_sc_hd__decap_12
XFILLER_59_306 VGND VGND VPWR VPWR sky130_fd_sc_hd__decap_12
XFILLER_101_447 VGND VGND VPWR VPWR sky130_fd_sc_hd__decap_12
XFILLER_55_501 VGND VGND VPWR VPWR sky130_fd_sc_hd__decap_12
XFILLER_82_353 VGND VGND VPWR VPWR sky130_fd_sc_hd__fill_1
XFILLER_27_269 VGND VGND VPWR VPWR sky130_fd_sc_hd__decap_12
XFILLER_63_39 VGND VGND VPWR VPWR sky130_fd_sc_hd__decap_12
XFILLER_42_239 VGND VGND VPWR VPWR sky130_fd_sc_hd__decap_12
XPHY_905 VGND VPWR sky130_fd_sc_hd__tapvpwrvgnd_1
XPHY_916 VGND VPWR sky130_fd_sc_hd__tapvpwrvgnd_1
XPHY_927 VGND VPWR sky130_fd_sc_hd__tapvpwrvgnd_1
XFILLER_23_464 VGND VGND VPWR VPWR sky130_fd_sc_hd__decap_12
XPHY_938 VGND VPWR sky130_fd_sc_hd__tapvpwrvgnd_1
XPHY_949 VGND VPWR sky130_fd_sc_hd__tapvpwrvgnd_1
XFILLER_12_32 VGND VGND VPWR VPWR sky130_fd_sc_hd__decap_12
XFILLER_6_129 VGND VGND VPWR VPWR sky130_fd_sc_hd__decap_12
XFILLER_2_324 VGND VGND VPWR VPWR sky130_fd_sc_hd__decap_12
XFILLER_77_147 VGND VGND VPWR VPWR sky130_fd_sc_hd__decap_12
XFILLER_92_117 VGND VGND VPWR VPWR sky130_fd_sc_hd__decap_12
XFILLER_37_51 VGND VGND VPWR VPWR sky130_fd_sc_hd__decap_8
XFILLER_58_361 VGND VGND VPWR VPWR sky130_fd_sc_hd__decap_12
XFILLER_37_62 VGND VGND VPWR VPWR sky130_fd_sc_hd__decap_12
XFILLER_46_556 VGND VGND VPWR VPWR sky130_fd_sc_hd__decap_12
XFILLER_73_342 VGND VGND VPWR VPWR sky130_fd_sc_hd__decap_12
XFILLER_73_375 VGND VGND VPWR VPWR sky130_fd_sc_hd__fill_1
XFILLER_61_537 VGND VGND VPWR VPWR sky130_fd_sc_hd__decap_12
XFILLER_14_442 VGND VGND VPWR VPWR sky130_fd_sc_hd__decap_12
XFILLER_5_184 VGND VGND VPWR VPWR sky130_fd_sc_hd__decap_12
XFILLER_96_434 VGND VGND VPWR VPWR sky130_fd_sc_hd__decap_12
XFILLER_78_80 VGND VGND VPWR VPWR sky130_fd_sc_hd__decap_12
XFILLER_37_501 VGND VGND VPWR VPWR sky130_fd_sc_hd__decap_12
XFILLER_60_581 VGND VGND VPWR VPWR sky130_fd_sc_hd__decap_12
XFILLER_20_434 VGND VGND VPWR VPWR sky130_fd_sc_hd__decap_12
XFILLER_101_211 VGND VGND VPWR VPWR sky130_fd_sc_hd__decap_6
XFILLER_59_147 VGND VGND VPWR VPWR sky130_fd_sc_hd__decap_12
XFILLER_74_117 VGND VGND VPWR VPWR sky130_fd_sc_hd__decap_12
XFILLER_87_489 VGND VGND VPWR VPWR sky130_fd_sc_hd__decap_12
XFILLER_28_556 VGND VGND VPWR VPWR sky130_fd_sc_hd__decap_12
XFILLER_55_342 VGND VGND VPWR VPWR sky130_fd_sc_hd__decap_12
XFILLER_74_27 VGND VGND VPWR VPWR sky130_fd_sc_hd__decap_4
XFILLER_70_312 VGND VGND VPWR VPWR sky130_fd_sc_hd__decap_12
XFILLER_43_537 VGND VGND VPWR VPWR sky130_fd_sc_hd__decap_12
XPHY_702 VGND VPWR sky130_fd_sc_hd__tapvpwrvgnd_1
XFILLER_30_209 VGND VGND VPWR VPWR sky130_fd_sc_hd__decap_4
XPHY_713 VGND VPWR sky130_fd_sc_hd__tapvpwrvgnd_1
XPHY_724 VGND VPWR sky130_fd_sc_hd__tapvpwrvgnd_1
XPHY_735 VGND VPWR sky130_fd_sc_hd__tapvpwrvgnd_1
X_200_ VGND VGND VPWR VPWR _200_/HI wbs_dat_o[24] sky130_fd_sc_hd__conb_1
XPHY_746 VGND VPWR sky130_fd_sc_hd__tapvpwrvgnd_1
XPHY_757 VGND VPWR sky130_fd_sc_hd__tapvpwrvgnd_1
XPHY_768 VGND VPWR sky130_fd_sc_hd__tapvpwrvgnd_1
X_131_ VGND VGND VPWR VPWR _131_/HI la_data_out[84] sky130_fd_sc_hd__conb_1
XPHY_779 VGND VPWR sky130_fd_sc_hd__tapvpwrvgnd_1
XFILLER_11_489 VGND VGND VPWR VPWR sky130_fd_sc_hd__decap_12
X_062_ VGND VGND VPWR VPWR _062_/HI la_data_out[5] sky130_fd_sc_hd__conb_1
XFILLER_3_611 VGND VGND VPWR VPWR sky130_fd_sc_hd__decap_8
XFILLER_2_154 VGND VGND VPWR VPWR sky130_fd_sc_hd__decap_12
XFILLER_66_607 VGND VGND VPWR VPWR sky130_fd_sc_hd__decap_12
XFILLER_93_415 VGND VGND VPWR VPWR sky130_fd_sc_hd__decap_12
XFILLER_19_501 VGND VGND VPWR VPWR sky130_fd_sc_hd__decap_12
XFILLER_61_367 VGND VGND VPWR VPWR sky130_fd_sc_hd__fill_1
XFILLER_64_93 VGND VGND VPWR VPWR sky130_fd_sc_hd__decap_12
XFILLER_42_581 VGND VGND VPWR VPWR sky130_fd_sc_hd__decap_12
XFILLER_6_471 VGND VGND VPWR VPWR sky130_fd_sc_hd__decap_12
XFILLER_50_3 VGND VGND VPWR VPWR sky130_fd_sc_hd__decap_12
XFILLER_56_117 VGND VGND VPWR VPWR sky130_fd_sc_hd__decap_12
XFILLER_69_489 VGND VGND VPWR VPWR sky130_fd_sc_hd__decap_12
XFILLER_37_342 VGND VGND VPWR VPWR sky130_fd_sc_hd__decap_12
XFILLER_84_459 VGND VGND VPWR VPWR sky130_fd_sc_hd__decap_12
XFILLER_25_537 VGND VGND VPWR VPWR sky130_fd_sc_hd__decap_12
XFILLER_52_312 VGND VGND VPWR VPWR sky130_fd_sc_hd__decap_12
XFILLER_40_518 VGND VGND VPWR VPWR sky130_fd_sc_hd__fill_1
XFILLER_69_27 VGND VGND VPWR VPWR sky130_fd_sc_hd__decap_12
XFILLER_0_614 VGND VGND VPWR VPWR sky130_fd_sc_hd__decap_6
XFILLER_87_220 VGND VGND VPWR VPWR sky130_fd_sc_hd__decap_12
XFILLER_85_15 VGND VGND VPWR VPWR sky130_fd_sc_hd__decap_12
XFILLER_75_415 VGND VGND VPWR VPWR sky130_fd_sc_hd__decap_12
XFILLER_85_59 VGND VGND VPWR VPWR sky130_fd_sc_hd__fill_2
XFILLER_16_504 VGND VGND VPWR VPWR sky130_fd_sc_hd__decap_12
XPHY_510 VGND VPWR sky130_fd_sc_hd__tapvpwrvgnd_1
XFILLER_43_367 VGND VGND VPWR VPWR sky130_fd_sc_hd__decap_12
XFILLER_24_581 VGND VGND VPWR VPWR sky130_fd_sc_hd__decap_12
XPHY_521 VGND VPWR sky130_fd_sc_hd__tapvpwrvgnd_1
XPHY_532 VGND VPWR sky130_fd_sc_hd__tapvpwrvgnd_1
XPHY_543 VGND VPWR sky130_fd_sc_hd__tapvpwrvgnd_1
XPHY_1131 VGND VPWR sky130_fd_sc_hd__tapvpwrvgnd_1
XPHY_1120 VGND VPWR sky130_fd_sc_hd__tapvpwrvgnd_1
XFILLER_11_220 VGND VGND VPWR VPWR sky130_fd_sc_hd__decap_12
XPHY_554 VGND VPWR sky130_fd_sc_hd__tapvpwrvgnd_1
XPHY_565 VGND VPWR sky130_fd_sc_hd__tapvpwrvgnd_1
XPHY_576 VGND VPWR sky130_fd_sc_hd__tapvpwrvgnd_1
XPHY_587 VGND VPWR sky130_fd_sc_hd__tapvpwrvgnd_1
XPHY_1175 VGND VPWR sky130_fd_sc_hd__tapvpwrvgnd_1
XPHY_1164 VGND VPWR sky130_fd_sc_hd__tapvpwrvgnd_1
XPHY_1153 VGND VPWR sky130_fd_sc_hd__tapvpwrvgnd_1
XPHY_1142 VGND VPWR sky130_fd_sc_hd__tapvpwrvgnd_1
XPHY_598 VGND VPWR sky130_fd_sc_hd__tapvpwrvgnd_1
X_114_ VGND VGND VPWR VPWR _114_/HI la_data_out[67] sky130_fd_sc_hd__conb_1
XPHY_1197 VGND VPWR sky130_fd_sc_hd__tapvpwrvgnd_1
XPHY_1186 VGND VPWR sky130_fd_sc_hd__tapvpwrvgnd_1
XFILLER_7_257 VGND VGND VPWR VPWR sky130_fd_sc_hd__decap_12
XFILLER_50_40 VGND VGND VPWR VPWR sky130_fd_sc_hd__decap_12
X_045_ VGND VGND VPWR VPWR _045_/HI io_out[13] sky130_fd_sc_hd__conb_1
XFILLER_38_117 VGND VGND VPWR VPWR sky130_fd_sc_hd__decap_12
XFILLER_93_245 VGND VGND VPWR VPWR sky130_fd_sc_hd__decap_12
XFILLER_66_459 VGND VGND VPWR VPWR sky130_fd_sc_hd__decap_12
XFILLER_19_342 VGND VGND VPWR VPWR sky130_fd_sc_hd__decap_12
XFILLER_34_312 VGND VGND VPWR VPWR sky130_fd_sc_hd__decap_12
XFILLER_22_507 VGND VGND VPWR VPWR sky130_fd_sc_hd__decap_12
XFILLER_98_3 VGND VGND VPWR VPWR sky130_fd_sc_hd__decap_12
XFILLER_34_389 VGND VGND VPWR VPWR sky130_fd_sc_hd__decap_8
XFILLER_69_220 VGND VGND VPWR VPWR sky130_fd_sc_hd__decap_12
XFILLER_97_562 VGND VGND VPWR VPWR sky130_fd_sc_hd__decap_12
XFILLER_57_415 VGND VGND VPWR VPWR sky130_fd_sc_hd__decap_12
XFILLER_25_367 VGND VGND VPWR VPWR sky130_fd_sc_hd__decap_12
XFILLER_80_495 VGND VGND VPWR VPWR sky130_fd_sc_hd__decap_12
XFILLER_40_337 VGND VGND VPWR VPWR sky130_fd_sc_hd__decap_12
XFILLER_71_39 VGND VGND VPWR VPWR sky130_fd_sc_hd__decap_12
XFILLER_21_562 VGND VGND VPWR VPWR sky130_fd_sc_hd__decap_12
XFILLER_20_32 VGND VGND VPWR VPWR sky130_fd_sc_hd__decap_12
XFILLER_4_227 VGND VGND VPWR VPWR sky130_fd_sc_hd__decap_12
XFILLER_0_466 VGND VGND VPWR VPWR sky130_fd_sc_hd__decap_12
XFILLER_29_74 VGND VGND VPWR VPWR sky130_fd_sc_hd__fill_2
XFILLER_48_459 VGND VGND VPWR VPWR sky130_fd_sc_hd__decap_12
XFILLER_75_245 VGND VGND VPWR VPWR sky130_fd_sc_hd__decap_4
XFILLER_90_215 VGND VGND VPWR VPWR sky130_fd_sc_hd__decap_12
XFILLER_16_312 VGND VGND VPWR VPWR sky130_fd_sc_hd__decap_12
XFILLER_43_120 VGND VGND VPWR VPWR sky130_fd_sc_hd__fill_2
XFILLER_45_51 VGND VGND VPWR VPWR sky130_fd_sc_hd__decap_8
XFILLER_45_62 VGND VGND VPWR VPWR sky130_fd_sc_hd__decap_12
XFILLER_71_440 VGND VGND VPWR VPWR sky130_fd_sc_hd__decap_12
XFILLER_45_84 VGND VGND VPWR VPWR sky130_fd_sc_hd__decap_6
XPHY_351 VGND VPWR sky130_fd_sc_hd__tapvpwrvgnd_1
XPHY_340 VGND VPWR sky130_fd_sc_hd__tapvpwrvgnd_1
XPHY_395 VGND VPWR sky130_fd_sc_hd__tapvpwrvgnd_1
XPHY_384 VGND VPWR sky130_fd_sc_hd__tapvpwrvgnd_1
XPHY_373 VGND VPWR sky130_fd_sc_hd__tapvpwrvgnd_1
XPHY_362 VGND VPWR sky130_fd_sc_hd__tapvpwrvgnd_1
XFILLER_8_544 VGND VGND VPWR VPWR sky130_fd_sc_hd__decap_12
XFILLER_6_56 VGND VGND VPWR VPWR sky130_fd_sc_hd__decap_12
X_028_ VGND VGND VPWR VPWR _028_/HI io_oeb[24] sky130_fd_sc_hd__conb_1
XFILLER_98_337 VGND VGND VPWR VPWR sky130_fd_sc_hd__decap_12
XFILLER_79_562 VGND VGND VPWR VPWR sky130_fd_sc_hd__decap_12
XFILLER_94_532 VGND VGND VPWR VPWR sky130_fd_sc_hd__decap_12
XFILLER_13_3 VGND VGND VPWR VPWR sky130_fd_sc_hd__decap_12
XFILLER_86_80 VGND VGND VPWR VPWR sky130_fd_sc_hd__decap_12
XFILLER_62_462 VGND VGND VPWR VPWR sky130_fd_sc_hd__decap_12
XFILLER_22_337 VGND VGND VPWR VPWR sky130_fd_sc_hd__decap_12
XFILLER_1_208 VGND VGND VPWR VPWR sky130_fd_sc_hd__decap_12
XFILLER_57_245 VGND VGND VPWR VPWR sky130_fd_sc_hd__decap_12
XFILLER_72_215 VGND VGND VPWR VPWR sky130_fd_sc_hd__decap_12
XFILLER_85_598 VGND VGND VPWR VPWR sky130_fd_sc_hd__decap_12
XFILLER_53_440 VGND VGND VPWR VPWR sky130_fd_sc_hd__decap_12
XFILLER_82_27 VGND VGND VPWR VPWR sky130_fd_sc_hd__decap_4
XFILLER_40_145 VGND VGND VPWR VPWR sky130_fd_sc_hd__decap_8
XFILLER_40_178 VGND VGND VPWR VPWR sky130_fd_sc_hd__decap_12
XFILLER_5_525 VGND VGND VPWR VPWR sky130_fd_sc_hd__decap_12
XFILLER_5_569 VGND VGND VPWR VPWR sky130_fd_sc_hd__decap_12
XFILLER_0_230 VGND VGND VPWR VPWR sky130_fd_sc_hd__decap_12
XFILLER_95_318 VGND VGND VPWR VPWR sky130_fd_sc_hd__decap_12
XFILLER_76_532 VGND VGND VPWR VPWR sky130_fd_sc_hd__decap_12
XFILLER_91_546 VGND VGND VPWR VPWR sky130_fd_sc_hd__decap_3
XFILLER_72_93 VGND VGND VPWR VPWR sky130_fd_sc_hd__decap_12
XPHY_170 VGND VGND VPWR VPWR sky130_fd_sc_hd__decap_3
XPHY_192 VGND VGND VPWR VPWR sky130_fd_sc_hd__decap_3
XPHY_181 VGND VGND VPWR VPWR sky130_fd_sc_hd__decap_3
XFILLER_8_385 VGND VGND VPWR VPWR sky130_fd_sc_hd__decap_12
XFILLER_98_178 VGND VGND VPWR VPWR sky130_fd_sc_hd__decap_12
XFILLER_39_245 VGND VGND VPWR VPWR sky130_fd_sc_hd__decap_12
XFILLER_94_373 VGND VGND VPWR VPWR sky130_fd_sc_hd__decap_12
XFILLER_27_418 VGND VGND VPWR VPWR sky130_fd_sc_hd__decap_8
XFILLER_54_215 VGND VGND VPWR VPWR sky130_fd_sc_hd__decap_12
XFILLER_67_598 VGND VGND VPWR VPWR sky130_fd_sc_hd__decap_12
XFILLER_35_440 VGND VGND VPWR VPWR sky130_fd_sc_hd__decap_12
XFILLER_82_568 VGND VGND VPWR VPWR sky130_fd_sc_hd__decap_12
XFILLER_50_410 VGND VGND VPWR VPWR sky130_fd_sc_hd__decap_12
XFILLER_22_178 VGND VGND VPWR VPWR sky130_fd_sc_hd__decap_12
XFILLER_89_123 VGND VGND VPWR VPWR sky130_fd_sc_hd__decap_12
XFILLER_77_27 VGND VGND VPWR VPWR sky130_fd_sc_hd__decap_12
XFILLER_77_318 VGND VGND VPWR VPWR sky130_fd_sc_hd__decap_12
XFILLER_58_532 VGND VGND VPWR VPWR sky130_fd_sc_hd__decap_12
XFILLER_93_15 VGND VGND VPWR VPWR sky130_fd_sc_hd__decap_12
XFILLER_73_524 VGND VGND VPWR VPWR sky130_fd_sc_hd__decap_12
XFILLER_93_59 VGND VGND VPWR VPWR sky130_fd_sc_hd__fill_2
XFILLER_13_123 VGND VGND VPWR VPWR sky130_fd_sc_hd__decap_12
XFILLER_26_495 VGND VGND VPWR VPWR sky130_fd_sc_hd__decap_12
XFILLER_53_281 VGND VGND VPWR VPWR sky130_fd_sc_hd__decap_12
XFILLER_41_476 VGND VGND VPWR VPWR sky130_fd_sc_hd__decap_12
XFILLER_96_605 VGND VGND VPWR VPWR sky130_fd_sc_hd__decap_12
XFILLER_1_550 VGND VGND VPWR VPWR sky130_fd_sc_hd__decap_12
XFILLER_3_24 VGND VGND VPWR VPWR sky130_fd_sc_hd__decap_12
XFILLER_95_159 VGND VGND VPWR VPWR sky130_fd_sc_hd__decap_12
XFILLER_36_215 VGND VGND VPWR VPWR sky130_fd_sc_hd__decap_6
XFILLER_49_598 VGND VGND VPWR VPWR sky130_fd_sc_hd__decap_12
XFILLER_76_373 VGND VGND VPWR VPWR sky130_fd_sc_hd__decap_12
XFILLER_91_354 VGND VGND VPWR VPWR sky130_fd_sc_hd__decap_12
XFILLER_17_440 VGND VGND VPWR VPWR sky130_fd_sc_hd__decap_12
XFILLER_36_248 VGND VGND VPWR VPWR sky130_fd_sc_hd__decap_12
XFILLER_44_281 VGND VGND VPWR VPWR sky130_fd_sc_hd__decap_12
XFILLER_20_605 VGND VGND VPWR VPWR sky130_fd_sc_hd__decap_12
XFILLER_80_3 VGND VGND VPWR VPWR sky130_fd_sc_hd__decap_12
XFILLER_8_193 VGND VGND VPWR VPWR sky130_fd_sc_hd__decap_12
XFILLER_101_404 VGND VGND VPWR VPWR sky130_fd_sc_hd__decap_12
XFILLER_99_476 VGND VGND VPWR VPWR sky130_fd_sc_hd__decap_12
XFILLER_59_318 VGND VGND VPWR VPWR sky130_fd_sc_hd__decap_12
XFILLER_101_459 VGND VGND VPWR VPWR sky130_fd_sc_hd__decap_6
XFILLER_55_513 VGND VGND VPWR VPWR sky130_fd_sc_hd__decap_12
XFILLER_82_321 VGND VGND VPWR VPWR sky130_fd_sc_hd__decap_12
XFILLER_35_281 VGND VGND VPWR VPWR sky130_fd_sc_hd__decap_4
XPHY_906 VGND VPWR sky130_fd_sc_hd__tapvpwrvgnd_1
XPHY_917 VGND VPWR sky130_fd_sc_hd__tapvpwrvgnd_1
XFILLER_82_398 VGND VGND VPWR VPWR sky130_fd_sc_hd__decap_12
XFILLER_50_251 VGND VGND VPWR VPWR sky130_fd_sc_hd__decap_12
XPHY_928 VGND VPWR sky130_fd_sc_hd__tapvpwrvgnd_1
XPHY_939 VGND VPWR sky130_fd_sc_hd__tapvpwrvgnd_1
XFILLER_23_476 VGND VGND VPWR VPWR sky130_fd_sc_hd__decap_12
XFILLER_12_44 VGND VGND VPWR VPWR sky130_fd_sc_hd__decap_12
XFILLER_88_15 VGND VGND VPWR VPWR sky130_fd_sc_hd__decap_12
XFILLER_78_605 VGND VGND VPWR VPWR sky130_fd_sc_hd__decap_12
XFILLER_77_159 VGND VGND VPWR VPWR sky130_fd_sc_hd__decap_12
XFILLER_92_129 VGND VGND VPWR VPWR sky130_fd_sc_hd__decap_12
XFILLER_18_215 VGND VGND VPWR VPWR sky130_fd_sc_hd__decap_12
XFILLER_58_373 VGND VGND VPWR VPWR sky130_fd_sc_hd__decap_12
XFILLER_37_74 VGND VGND VPWR VPWR sky130_fd_sc_hd__fill_2
XFILLER_46_568 VGND VGND VPWR VPWR sky130_fd_sc_hd__decap_12
XFILLER_73_354 VGND VGND VPWR VPWR sky130_fd_sc_hd__decap_12
XFILLER_14_410 VGND VGND VPWR VPWR sky130_fd_sc_hd__decap_8
XNAND2X1 NAND2X1/vdd NAND2X1/gnd la_data_out[6] la_data_in[4] la_data_in[5] NAND2X1
XFILLER_14_454 VGND VGND VPWR VPWR sky130_fd_sc_hd__decap_4
XFILLER_53_51 VGND VGND VPWR VPWR sky130_fd_sc_hd__decap_8
XFILLER_53_62 VGND VGND VPWR VPWR sky130_fd_sc_hd__decap_12
XFILLER_5_196 VGND VGND VPWR VPWR sky130_fd_sc_hd__decap_12
XFILLER_96_446 VGND VGND VPWR VPWR sky130_fd_sc_hd__decap_12
XFILLER_1_391 VGND VGND VPWR VPWR sky130_fd_sc_hd__decap_12
XFILLER_37_513 VGND VGND VPWR VPWR sky130_fd_sc_hd__decap_12
XFILLER_94_91 VGND VGND VPWR VPWR sky130_fd_sc_hd__fill_1
XFILLER_91_184 VGND VGND VPWR VPWR sky130_fd_sc_hd__decap_12
XFILLER_17_281 VGND VGND VPWR VPWR sky130_fd_sc_hd__decap_12
XFILLER_64_398 VGND VGND VPWR VPWR sky130_fd_sc_hd__decap_12
XFILLER_32_251 VGND VGND VPWR VPWR sky130_fd_sc_hd__decap_12
XFILLER_60_593 VGND VGND VPWR VPWR sky130_fd_sc_hd__decap_12
XFILLER_20_446 VGND VGND VPWR VPWR sky130_fd_sc_hd__decap_12
XFILLER_59_159 VGND VGND VPWR VPWR sky130_fd_sc_hd__decap_12
XFILLER_28_502 VGND VGND VPWR VPWR sky130_fd_sc_hd__decap_12
XFILLER_74_129 VGND VGND VPWR VPWR sky130_fd_sc_hd__decap_12
XFILLER_28_568 VGND VGND VPWR VPWR sky130_fd_sc_hd__decap_12
XFILLER_55_354 VGND VGND VPWR VPWR sky130_fd_sc_hd__decap_12
XFILLER_70_324 VGND VGND VPWR VPWR sky130_fd_sc_hd__decap_12
XPHY_703 VGND VPWR sky130_fd_sc_hd__tapvpwrvgnd_1
XPHY_714 VGND VPWR sky130_fd_sc_hd__tapvpwrvgnd_1
XPHY_725 VGND VPWR sky130_fd_sc_hd__tapvpwrvgnd_1
XPHY_736 VGND VPWR sky130_fd_sc_hd__tapvpwrvgnd_1
XPHY_747 VGND VPWR sky130_fd_sc_hd__tapvpwrvgnd_1
XPHY_758 VGND VPWR sky130_fd_sc_hd__tapvpwrvgnd_1
XPHY_769 VGND VPWR sky130_fd_sc_hd__tapvpwrvgnd_1
X_130_ VGND VGND VPWR VPWR _130_/HI la_data_out[83] sky130_fd_sc_hd__conb_1
XFILLER_7_428 VGND VGND VPWR VPWR sky130_fd_sc_hd__decap_12
X_061_ VGND VGND VPWR VPWR _061_/HI la_data_out[4] sky130_fd_sc_hd__conb_1
XFILLER_2_166 VGND VGND VPWR VPWR sky130_fd_sc_hd__decap_12
XFILLER_66_619 VGND VGND VPWR VPWR sky130_fd_sc_hd__decap_6
XFILLER_78_457 VGND VGND VPWR VPWR sky130_fd_sc_hd__fill_1
XFILLER_19_513 VGND VGND VPWR VPWR sky130_fd_sc_hd__decap_12
XFILLER_46_398 VGND VGND VPWR VPWR sky130_fd_sc_hd__decap_12
XFILLER_64_50 VGND VGND VPWR VPWR sky130_fd_sc_hd__decap_12
XFILLER_73_184 VGND VGND VPWR VPWR sky130_fd_sc_hd__decap_8
XFILLER_14_273 VGND VGND VPWR VPWR sky130_fd_sc_hd__fill_2
XFILLER_42_593 VGND VGND VPWR VPWR sky130_fd_sc_hd__decap_12
XFILLER_80_93 VGND VGND VPWR VPWR sky130_fd_sc_hd__decap_12
XFILLER_6_483 VGND VGND VPWR VPWR sky130_fd_sc_hd__decap_12
XFILLER_43_3 VGND VGND VPWR VPWR sky130_fd_sc_hd__decap_12
XFILLER_96_276 VGND VGND VPWR VPWR sky130_fd_sc_hd__decap_12
XFILLER_56_129 VGND VGND VPWR VPWR sky130_fd_sc_hd__decap_12
XFILLER_69_479 VGND VGND VPWR VPWR sky130_fd_sc_hd__fill_1
XFILLER_37_354 VGND VGND VPWR VPWR sky130_fd_sc_hd__decap_12
XFILLER_52_324 VGND VGND VPWR VPWR sky130_fd_sc_hd__decap_12
XFILLER_100_15 VGND VGND VPWR VPWR sky130_fd_sc_hd__decap_12
XFILLER_20_276 VGND VGND VPWR VPWR sky130_fd_sc_hd__decap_12
XFILLER_69_39 VGND VGND VPWR VPWR sky130_fd_sc_hd__decap_12
XFILLER_87_232 VGND VGND VPWR VPWR sky130_fd_sc_hd__decap_12
XFILLER_85_27 VGND VGND VPWR VPWR sky130_fd_sc_hd__decap_12
XFILLER_18_32 VGND VGND VPWR VPWR sky130_fd_sc_hd__decap_12